%chk=C:\Users\melih\Desktop\Gaussian\H2ClCCClH2\energy1.chk
# hf/3-21g geom=connectivity

Title Card Required

0 1
 C                  1.42857147    0.09316770    0.00000000
 H                  1.78522589   -0.91564230    0.00000000
 H                  1.78524431    0.59756589   -0.87365150
 C                 -0.11142853    0.09318668    0.00000000
 H                 -0.46810109   -0.41104267   -0.87374908
 H                 -0.46810160   -0.41138098    0.87355355
 Cl                -0.69807423    1.75253797    0.00032168
 Cl                 2.01524829    0.92283201    1.43703425

 1 2 1.0 3 1.0 4 1.0 8 1.0
 2
 3
 4 5 1.0 6 1.0 7 1.0
 5
 6
 7
 8

