%chk=C:\G09W\H2ClC-CClH2  1,2 dichloroethane\optt.chk
# opt hf/6-31g geom=connectivity

Optimization

0 1
 C                 -4.00619599    0.93156199    0.00006006
 H                 -3.65034054   -0.07752996    0.00063217
 H                 -3.64879292    1.43529932   -0.87367431
 C                 -3.49275561    1.65765692    1.25734488
 H                 -3.85015868    1.15391958    2.13107925
 H                 -2.42275603    1.65679683    1.25775066
 Cl                -5.76619530    0.93297672   -0.00060739
 Cl                -4.07808795    3.31747172    1.25640383

 1 2 1.0 3 1.0 4 1.0 7 1.0
 2
 3
 4 5 1.0 6 1.0 8 1.0
 5
 6
 7
 8

